32
Lattice="13.151 0.0 0.0 2.40214469653e-16 3.923 0.0 3.52820742834e-16 3.52820742834e-16 5.762" Properties=species:S:1:pos:R:3:Z:I:1 pbc="T T T"
O      4.91216152       3.48558550       0.00000000        8 
O      8.23883848       0.43741450       2.88100000        8 
O     11.48766152       2.39891450       0.00000000        8 
O      1.66333848       1.52408550       2.88100000        8 
H      4.24777300       3.69154300       5.30680200        1 
H      8.90322700       0.23145700       2.42580200        1 
H     10.82327300       2.19295700       5.30680200        1 
H      2.32772700       1.73004300       2.42580200        1 
O      3.24750794       2.39656070       0.98069240        8 
O      9.90349206       1.52643930       3.86169240        8 
O      9.82300794       3.48793930       0.98069240        8 
O      3.32799206       0.43506070       3.86169240        8 
C      4.40939879       2.75394600       0.97781140        6 
C      8.74160121       1.16905400       3.85881140        6 
C     10.98489879       3.13055400       0.97781140        6 
C      2.16610121       0.79244600       3.85881140        6 
C      5.40085268       2.41656800       2.03801940        6 
C      7.75014732       1.50643200       4.91901940        6 
C     11.97635268       3.46793200       2.03801940        6 
C      1.17464732       0.45506800       4.91901940        6 
H      4.95792700       1.97326900       2.77728400        1 
H      8.19307300       1.94973100       5.65828400        1 
H     11.53342700       3.91123100       2.77728400        1 
H      1.61757300       0.01176900       5.65828400        1 
H      6.11521500       1.96934600       1.71707600        1 
H      7.03578500       1.95365400       4.59807600        1 
H     12.69071500       3.91515400       1.71707600        1 
H      0.46028500       0.00784600       4.59807600        1 
H      5.81274200       3.22862900       2.42580200        1 
H      7.33825800       0.69437100       5.30680200        1 
H     12.38824200       2.65587100       2.42580200        1 
H      0.76275800       1.26712900       5.30680200        1 
