36
Lattice="7.0317 0.0 0.0 6.74786509564e-16 11.0201 0.0 3.26509206355e-16 3.26509206355e-16 5.3323" Properties=species:S:1:pos:R:3:Z:I:1 pbc="T T T"
O      1.22196883       1.29442095       2.80585626        8 
O      2.29388117       9.72567905       0.13970626        8 
O      4.73781883       4.21562905       2.52644374        8 
O      5.80973117       6.80447095       5.19259374        8 
C      1.27998035       2.26121432       1.81058247        6 
C      2.23586965       8.75888568       4.47673247        6 
C      4.79583035       3.24883568       3.52171754        6 
C      5.75171965       7.77126432       0.85556753        6 
C      0.42991814       1.82415715       0.68530720        6 
C      3.08593186       9.19594285       3.35145720        6 
C      3.94576814       3.68589285       4.64699280        6 
C      6.60178186       7.33420715       1.98084280        6 
C      6.91061413       0.65767957       1.01772278        6 
C      3.63693587      10.36242043       3.68387278        6 
C      3.39476413       4.85237043       4.31457722        6 
C      0.12108587       6.16772957       1.64842722        6 
C      0.35355388       0.30239154       2.37537968        6 
C      3.16229612      10.71770846       5.04152968        6 
C      3.86940388       5.20765846       2.95692032        6 
C      6.67814612       5.81244154       0.29077032        6 
O      1.93807715       3.25302332       1.94458316        8 
O      1.57777285       7.76707668       4.61073316        8 
O      5.45392715       2.25702668       3.38771684        8 
O      5.09362285       8.76307332       0.72156684        8 
O      0.10610835      10.37873018       3.06969846        8 
O      3.40974165       0.64136982       0.40354846        8 
O      3.62195835       6.15141982       2.26260154        8 
O      6.92559165       4.86868018       4.92875154        8 
H      0.41487030       2.23157025       5.19366020        1 
H      3.10097970       8.78852975       2.52751020        1 
H      3.93072030       3.27847975       0.13863980        1 
H      6.61682970       7.74162025       2.80478980        1 
H      6.37072020       0.14215929       0.51190080        1 
H      4.17682980      10.87794071       3.17805080        1 
H      2.85487020       5.36789071       4.82039920        1 
H      0.66097980       5.65220929       2.15424920        1 
