40
Lattice="5.3719 0.0 0.0 4.21394840353e-16 6.8819 0.0 6.6362385399e-16 6.6362385399e-16 10.8378" Properties=species:S:1:pos:R:3:Z:I:1 pbc="T T T"
O      0.33950408       1.51264162       2.73513559        8 
O      3.02545408       1.92830838       8.10266441        8 
O      5.03239592       4.95359162       2.68376441        8 
O      2.34644592       5.36925838       8.15403559        8 
O      4.95128023       2.89576588       5.54602739        8 
O      2.26533023       0.54518412       5.29177261        8 
O      0.42061977       6.33671588      10.71067261        8 
O      3.10656977       3.98613412       0.12712739        8 
C      0.87347094       2.31094202       3.43688314        6 
C      3.55942094       1.13000798       7.40091686        6 
C      4.49842906       5.75189202       1.98201686        6 
C      1.81247906       4.57095798       8.85578314        6 
C      0.49636356       3.00188478       4.78456357        6 
C      3.18231356       0.43906522       6.05323643        6 
C      4.87553644       6.44283478       0.63433643        6 
C      2.18958644       3.88001522      10.20346357        6 
C      1.78508237       3.80637889       4.72365513        6 
C      4.47103237       6.51647111       6.11414487        6 
C      3.58681763       0.36542889       0.69524487        6 
C      0.90086763       3.07552111      10.14255513        6 
H      2.40499963       3.61712664       5.47200522        1 
H      5.09094963       6.70572336       5.36579478        1 
H      2.96690037       0.17617664      10.78469478        1 
H      0.28095037       3.26477336       0.05310522        1 
H      1.63896669       4.78085593       4.62448926        1 
H      4.32491669       5.54199407       6.21331074        1 
H      3.73293331       1.33990593       0.79441074        1 
H      1.04698331       2.10104407      10.04338926        1 
C      2.17454512       3.10511328       3.40924675        6 
C      4.86049512       0.33583672       7.42855325        6 
C      3.19735488       6.54606328       2.00965325        6 
C      0.51140488       3.77678672       8.82814675        6 
H      2.24599139       3.72173152       2.63792052        1 
H      4.93194139       6.60111848       8.19987948        1 
H      3.12590861       0.28078152       2.78097948        1 
H      0.43995861       3.16016848       8.05682052        1 
H      2.98409045       2.54148567       3.48543648        1 
H      0.29814045       0.89946433       7.35236352        1 
H      2.38780955       5.98243567       1.93346352        1 
H      5.07375955       4.34041433       8.90433648        1 
